[General]
network = Simulation01
record-eventlog = true

sim-time-limit = 1440s
cpu-time-limit = 1440s
total-stack = 7MiB  # increase if necessary
cmdenv-express-mode = true
cmdenv-event-banners = true
cmdenv-performance-display = false

[Config Run1]
*.create.timeLimit = 480.0s
*.create.intervalTime = erlang_k(2,8.0s)
*.accumulate.workUnit = 2
*.track.qName = "track"
*.track.initialQnum = 4
*.load.qName = "load"
*.load.initialQnum = 0
*.worker.qName = "worker"
*.worker.initialQnum = 2
*.select.productionTime1 = exponential(14.0s)
*.select.productionTime2 = exponential(12.0s)
*.process1.workName = "carry"
*.process1.subworkName = "return-worker"
*.process1.productionTime1 = normal(22.0s, 3.0s)
*.process1.productionTime2 = 5s
*.process2.workName = "unload"
*.process2.subworkName = "dummy"
*.process2.productionTime1 = uniform(2.0s, 8.0s)
*.process2.productionTime2 = 0s
*.process3.workName = "dummy"
*.process3.subworkName = "return-truck"
*.process3.productionTime1 = 0s
*.process3.productionTime2 = normal(18.0s, 3.0s)